opendss/linhas_mt.dss
new line.52681792 phases=1 bus1=78864605002188.1 bus2=78864595002188.1 r1=1.551 x1=0.47 length=0.105392 units=km normamps=125.0
new line.52681793 phases=1 bus1=78864595002188.1 bus2=78864585002188.1 r1=1.551 x1=0.47 length=0.063396 units=km normamps=125.0
new line.52681794 phases=1 bus1=78864615002188.1 bus2=78864605002188.1 r1=1.551 x1=0.47 length=0.100205 units=km normamps=125.0
new line.52681795 phases=1 bus1=78864625002188.1 bus2=78864615002188.1 r1=1.551 x1=0.47 length=0.125236 units=km normamps=125.0
new line.52681796 phases=1 bus1=78864635002188.1 bus2=78864625002188.1 r1=1.551 x1=0.47 length=0.007209 units=km normamps=125.0
new line.52681797 phases=1 bus1=78864645002188.1 bus2=78864585002188B.1 r1=2.469 x1=0.49 length=0.200117 units=km normamps=105.0
new line.52681798 phases=1 bus1=78864655002188.1 bus2=78864645002188.1 r1=2.469 x1=0.49 length=0.253259 units=km normamps=105.0
new line.52681799 phases=1 bus1=78864665002188.1 bus2=78864655002188.1 r1=2.469 x1=0.49 length=0.157273 units=km normamps=105.0
new line.52681800 phases=1 bus1=78864675002188.1 bus2=78864665002188.1 r1=2.469 x1=0.49 length=0.184364 units=km normamps=105.0
new line.52773432 phases=3 bus1=79659305002412.1.2.3 bus2=79659295002412.1.2.3 r1=0.975 x1=0.47 length=0.007341 units=km normamps=152.0
new line.52873519 phases=3 bus1=80437115001990.1.2.3 bus2=80434915001990.1.2.3 r1=1.551 x1=0.49 length=0.045787 units=km normamps=114.0
new line.52873520 phases=3 bus1=80437125001990.1.2.3 bus2=80437115001990.1.2.3 r1=1.551 x1=0.49 length=0.041148 units=km normamps=114.0
new line.52873521 phases=3 bus1=80435835001990.1.2.3 bus2=80437125001990.1.2.3 r1=1.551 x1=0.49 length=0.032481 units=km normamps=114.0
new line.52873522 phases=3 bus1=80435845001990.1.2.3 bus2=80435835001990.1.2.3 r1=1.551 x1=0.49 length=0.031157 units=km normamps=114.0
new line.52873523 phases=3 bus1=80435185001990.1.2.3 bus2=80435845001990.1.2.3 r1=1.551 x1=0.49 length=0.025186 units=km normamps=114.0
new line.52873524 phases=3 bus1=80435855001990.1.2.3 bus2=80437115001990.1.2.3 r1=1.551 x1=0.49 length=0.021336 units=km normamps=114.0
new line.52873525 phases=3 bus1=80435865001990.1.2.3 bus2=80435855001990.1.2.3 r1=1.551 x1=0.49 length=0.037048 units=km normamps=114.0
new line.52873526 phases=3 bus1=80434915001990.1.2.3 bus2=80434905001990.1.2.3 r1=1.551 x1=0.49 length=0.033868 units=km normamps=114.0
new line.52873527 phases=3 bus1=80434905001990.1.2.3 bus2=80434675001990.1.2.3 r1=1.551 x1=0.49 length=0.042527 units=km normamps=114.0
new line.52873528 phases=3 bus1=80434895001990.1.2.3 bus2=80434925001990.1.2.3 r1=0.975 x1=0.47 length=0.033495 units=km normamps=152.0
new line.52873529 phases=3 bus1=80434925001990.1.2.3 bus2=80434935001990.1.2.3 r1=0.975 x1=0.47 length=0.02651 units=km normamps=152.0
new line.52873530 phases=3 bus1=80434935001990.1.2.3 bus2=80434495001990.1.2.3 r1=0.975 x1=0.47 length=0.034861 units=km normamps=152.0
new line.52873531 phases=3 bus1=80434415001990.1.2.3 bus2=95203995001990.1.2.3 r1=0.195 x1=0.4 length=0.006334 units=km normamps=419.0
new line.52873532 phases=3 bus1=80435435001990.1.2.3 bus2=80435425001990.1.2.3 r1=0.188 x1=0.26 length=0.053788 units=km normamps=525.0
new line.52873533 phases=3 bus1=80435425001990.1.2.3 bus2=80435415001990.1.2.3 r1=0.188 x1=0.26 length=0.024584 units=km normamps=525.0
new line.52873534 phases=3 bus1=80434325001990.1.2.3 bus2=80434075001990.1.2.3 r1=0.195 x1=0.4 length=0.028272 units=km normamps=419.0
new line.52873535 phases=3 bus1=80434335001990.1.2.3 bus2=80434325001990.1.2.3 r1=0.195 x1=0.4 length=0.034282 units=km normamps=419.0
new line.52873536 phases=3 bus1=80434425001990.1.2.3 bus2=80434415001990.1.2.3 r1=0.195 x1=0.4 length=0.016487 units=km normamps=419.0
new line.52873537 phases=3 bus1=80434445001990.1.2.3 bus2=80434425001990.1.2.3 r1=0.195 x1=0.4 length=0.037501 units=km normamps=419.0
new line.52873538 phases=3 bus1=80434435001990.1.2.3 bus2=80434445001990.1.2.3 r1=0.195 x1=0.4 length=0.013822 units=km normamps=419.0
new line.52873539 phases=3 bus1=80434445001990.1.2.3 bus2=80434455001990.1.2.3 r1=0.195 x1=0.4 length=0.015098 units=km normamps=419.0
new line.52873540 phases=3 bus1=80434455001990.1.2.3 bus2=80434465001990.1.2.3 r1=0.195 x1=0.4 length=0.032738 units=km normamps=419.0
new line.52873541 phases=3 bus1=80434465001990.1.2.3 bus2=80434475001990.1.2.3 r1=0.195 x1=0.4 length=0.037506 units=km normamps=419.0
new line.52873542 phases=3 bus1=80434475001990.1.2.3 bus2=80434335001990.1.2.3 r1=0.195 x1=0.4 length=0.043683 units=km normamps=419.0
new line.52873543 phases=3 bus1=80434485001990.1.2.3 bus2=80434435001990B.1.2.3 r1=1.551 x1=0.49 length=0.024426 units=km normamps=114.0
new line.52873544 phases=3 bus1=80434495001990.1.2.3 bus2=80434485001990.1.2.3 r1=1.551 x1=0.49 length=0.026821 units=km normamps=114.0
new line.52873545 phases=3 bus1=80434525001990.1.2.3 bus2=80434445001990.1.2.3 r1=0.195 x1=0.4 length=0.023143 units=km normamps=419.0
new line.52873546 phases=3 bus1=80433635001990.1.2.3 bus2=80433615001990.1.2.3 r1=0.195 x1=0.4 length=0.063577 units=km normamps=419.0
new line.52873547 phases=3 bus1=80433635001990.1.2.3 bus2=80433695001990.1.2.3 r1=0.195 x1=0.4 length=0.027913 units=km normamps=419.0
new line.52873548 phases=3 bus1=80434895001990.1.2.3 bus2=80434675001990.1.2.3 r1=0.975 x1=0.47 length=0.030908 units=km normamps=152.0
new line.52873549 phases=3 bus1=80433695001990.1.2.3 bus2=80433705001990.1.2.3 r1=0.195 x1=0.4 length=0.034359 units=km normamps=419.0
new line.52873550 phases=3 bus1=80433705001990.1.2.3 bus2=80433715001990.1.2.3 r1=0.195 x1=0.4 length=0.025564 units=km normamps=419.0
new line.52873551 phases=3 bus1=80433715001990.1.2.3 bus2=80433725001990.1.2.3 r1=0.195 x1=0.4 length=0.036816 units=km normamps=419.0
new line.52873552 phases=3 bus1=80433725001990.1.2.3 bus2=80433765001990.1.2.3 r1=0.195 x1=0.4 length=0.007444 units=km normamps=419.0
new line.52873553 phases=3 bus1=80433765001990.1.2.3 bus2=80433755001990.1.2.3 r1=0.195 x1=0.4 length=0.035322 units=km normamps=419.0
new line.52873554 phases=3 bus1=80433765001990.1.2.3 bus2=80433745001990.1.2.3 r1=0.195 x1=0.4 length=0.027533 units=km normamps=419.0
new line.52873555 phases=3 bus1=80433815001990.1.2.3 bus2=93432675001990.1.2.3 r1=0.195 x1=0.4 length=0.022211 units=km normamps=419.0
new line.52873557 phases=3 bus1=80433815001990B.1.2.3 bus2=80433845001990.1.2.3 r1=1.551 x1=0.49 length=0.028612 units=km normamps=114.0
new line.52873558 phases=3 bus1=80433985001990.1.2.3 bus2=80433995001990.1.2.3 r1=0.975 x1=0.47 length=0.045404 units=km normamps=152.0
new line.52873559 phases=3 bus1=80433995001990.1.2.3 bus2=80434005001990.1.2.3 r1=0.975 x1=0.47 length=0.026841 units=km normamps=152.0
new line.52873560 phases=3 bus1=80434015001990.1.2.3 bus2=80433985001990.1.2.3 r1=0.975 x1=0.47 length=0.030351 units=km normamps=152.0
new line.52873561 phases=3 bus1=80434025001990B.1.2.3 bus2=80434015001990.1.2.3 r1=0.975 x1=0.47 length=0.033744 units=km normamps=152.0
new line.52873562 phases=3 bus1=80435135001990.1.2.3 bus2=80435125001990.1.2.3 r1=1.551 x1=0.49 length=0.023928 units=km normamps=114.0
new line.52873563 phases=3 bus1=80435145001990.1.2.3 bus2=80435135001990.1.2.3 r1=1.551 x1=0.49 length=0.032092 units=km normamps=114.0
new line.52873564 phases=3 bus1=80435145001990.1.2.3 bus2=80435175001990.1.2.3 r1=1.551 x1=0.49 length=0.017493 units=km normamps=114.0
new line.52873565 phases=3 bus1=80435175001990.1.2.3 bus2=80435185001990.1.2.3 r1=1.551 x1=0.49 length=0.036524 units=km normamps=114.0
new line.52873566 phases=3 bus1=80434095001990.1.2.3 bus2=80434115001990.1.2.3 r1=0.195 x1=0.4 length=0.040739 units=km normamps=419.0
new line.52873567 phases=3 bus1=80433765001990.1.2.3 bus2=80433735001990.1.2.3 r1=0.195 x1=0.4 length=0.00595 units=km normamps=419.0
new line.52873568 phases=3 bus1=80434115001990.1.2.3 bus2=80433745001990.1.2.3 r1=0.195 x1=0.4 length=0.029777 units=km normamps=419.0
new line.52873569 phases=3 bus1=80434135001990.1.2.3 bus2=80434125001990.1.2.3 r1=1.551 x1=0.49 length=0.032727 units=km normamps=114.0
new line.52873570 phases=3 bus1=80434125001990.1.2.3 bus2=80434145001990.1.2.3 r1=1.551 x1=0.49 length=0.014461 units=km normamps=114.0
new line.52873571 phases=3 bus1=80434095001990.1.2.3 bus2=80434145001990.1.2.3 r1=0.195 x1=0.4 length=0.006467 units=km normamps=419.0
new line.52873572 phases=3 bus1=80434145001990.1.2.3 bus2=80434065001990.1.2.3 r1=0.195 x1=0.4 length=0.045935 units=km normamps=419.0
new line.52873573 phases=3 bus1=80434065001990.1.2.3 bus2=80434075001990.1.2.3 r1=0.195 x1=0.4 length=0.029102 units=km normamps=419.0
new line.52873574 phases=3 bus1=80434025001990.1.2.3 bus2=80434145001990.1.2.3 r1=1.551 x1=0.49 length=0.039893 units=km normamps=114.0
new line.52873575 phases=3 bus1=80434085001990.1.2.3 bus2=80434155001990.1.2.3 r1=1.551 x1=0.49 length=0.032855 units=km normamps=114.0
new line.52873576 phases=3 bus1=80434065001990B.1.2.3 bus2=80434085001990.1.2.3 r1=1.551 x1=0.49 length=0.011925 units=km normamps=114.0
new line.52873577 phases=3 bus1=80434175001990.1.2.3 bus2=80434135001990B.1.2.3 r1=1.551 x1=0.49 length=0.029725 units=km normamps=114.0
new line.52873578 phases=3 bus1=80434185001990.1.2.3 bus2=80434175001990.1.2.3 r1=1.551 x1=0.49 length=0.040953 units=km normamps=114.0
new line.52873579 phases=3 bus1=80434195001990.1.2.3 bus2=80434185001990.1.2.3 r1=1.551 x1=0.49 length=0.030682 units=km normamps=114.0
new line.52873580 phases=3 bus1=80434265001990.1.2.3 bus2=80434245001990.1.2.3 r1=0.975 x1=0.47 length=0.02922 units=km normamps=152.0
new line.52873581 phases=3 bus1=80434155001990.1.2.3 bus2=80434265001990.1.2.3 r1=1.551 x1=0.49 length=0.048103 units=km normamps=114.0
new line.52873582 phases=3 bus1=80435405001990.1.2.3 bus2=80435385001990.1.2.3 r1=0.195 x1=0.4 length=0.032204 units=km normamps=419.0
new line.52873583 phases=3 bus1=80435415001990.1.2.3 bus2=87229005001990.1.2.3 r1=0.188 x1=0.26 length=0.023492 units=km normamps=525.0
new line.52873584 phases=3 bus1=80435455001990.1.2.3 bus2=80435445001990.1.2.3 r1=0.195 x1=0.4 length=0.022704 units=km normamps=419.0
new line.52873585 phases=3 bus1=80435465001990.1.2.3 bus2=80435455001990.1.2.3 r1=0.195 x1=0.4 length=0.032738 units=km normamps=419.0
new line.52873586 phases=3 bus1=80435475001990.1.2.3 bus2=80435465001990.1.2.3 r1=0.195 x1=0.4 length=0.011658 units=km normamps=419.0
new line.52873587 phases=3 bus1=80435475001990.1.2.3 bus2=80435485001990.1.2.3 r1=0.195 x1=0.4 length=0.047134 units=km normamps=419.0
new line.52873588 phases=3 bus1=80435485001990.1.2.3 bus2=95330225001990.1.2.3 r1=0.195 x1=0.4 length=0.013375 units=km normamps=419.0
new line.52873589 phases=3 bus1=80435495001990.1.2.3 bus2=80435505001990.1.2.3 r1=0.195 x1=0.4 length=0.035903 units=km normamps=419.0
new line.52873590 phases=3 bus1=80435495001990.1.2.3 bus2=80435525001990.1.2.3 r1=0.195 x1=0.4 length=0.031314 units=km normamps=419.0
new line.52873591 phases=3 bus1=80435525001990.1.2.3 bus2=80435535001990.1.2.3 r1=0.195 x1=0.4 length=0.025848 units=km normamps=419.0
new line.52873592 phases=3 bus1=80435535001990.1.2.3 bus2=80433615001990.1.2.3 r1=0.195 x1=0.4 length=0.047113 units=km normamps=419.0
new line.52873593 phases=3 bus1=80435815001990.1.2.3 bus2=80435145001990.1.2.3 r1=0.975 x1=0.47 length=0.030396 units=km normamps=152.0
new line.52873594 phases=3 bus1=80435825001990.1.2.3 bus2=80435815001990.1.2.3 r1=0.975 x1=0.47 length=0.029654 units=km normamps=152.0
new line.52873595 phases=3 bus1=80437005001990.1.2.3 bus2=80435825001990.1.2.3 r1=0.975 x1=0.47 length=0.003836 units=km normamps=152.0
new line.52873596 phases=3 bus1=80438055001990.1.2.3 bus2=80439735001990.1.2.3 r1=1.551 x1=0.49 length=0.009701 units=km normamps=114.0
new line.52873597 phases=3 bus1=80438065001990.1.2.3 bus2=80439735001990.1.2.3 r1=1.551 x1=0.49 length=0.015098 units=km normamps=114.0
new line.52873598 phases=3 bus1=80438095001990.1.2.3 bus2=80439735001990.1.2.3 r1=1.551 x1=0.49 length=0.023719 units=km normamps=114.0
new line.52873599 phases=3 bus1=80439735001990.1.2.3 bus2=80438085001990.1.2.3 r1=1.551 x1=0.49 length=0.012305 units=km normamps=114.0
new line.52873600 phases=3 bus1=80436145001990.1.2.3 bus2=80439765001990.1.2.3 r1=0.195 x1=0.4 length=0.015874 units=km normamps=419.0
new line.52873601 phases=3 bus1=80439765001990.1.2.3 bus2=80436155001990.1.2.3 r1=0.195 x1=0.4 length=0.013908 units=km normamps=419.0
new line.52873602 phases=3 bus1=80439765001990.1.2.3 bus2=80439775001990.1.2.3 r1=0.195 x1=0.4 length=0.007993 units=km normamps=419.0
new line.52873603 phases=3 bus1=80438015001990.1.2.3 bus2=80437985001990.1.2.3 r1=1.551 x1=0.49 length=0.047082 units=km normamps=114.0
new line.52873604 phases=3 bus1=80436145001990.1.2.3 bus2=80436135001990.1.2.3 r1=0.195 x1=0.4 length=0.028068 units=km normamps=419.0
new line.52873605 phases=3 bus1=80436165001990.1.2.3 bus2=80436155001990.1.2.3 r1=0.195 x1=0.4 length=0.027285 units=km normamps=419.0
new line.52873606 phases=3 bus1=80436175001990B.1.2.3 bus2=80436165001990.1.2.3 r1=0.195 x1=0.4 length=0.01398 units=km normamps=419.0
new line.52873607 phases=3 bus1=80436225001990.1.2.3 bus2=80436215001990.1.2.3 r1=0.195 x1=0.4 length=0.028279 units=km normamps=419.0
new line.52873608 phases=3 bus1=80436235001990.1.2.3 bus2=80436225001990.1.2.3 r1=0.195 x1=0.4 length=0.01065 units=km normamps=419.0
new line.52873609 phases=3 bus1=80436245001990.1.2.3 bus2=80436225001990.1.2.3 r1=0.195 x1=0.4 length=0.01464 units=km normamps=419.0
new line.52873610 phases=3 bus1=80436255001990.1.2.3 bus2=80436245001990.1.2.3 r1=0.195 x1=0.4 length=0.028697 units=km normamps=419.0
new line.52873611 phases=3 bus1=80436265001990.1.2.3 bus2=80436245001990.1.2.3 r1=0.195 x1=0.4 length=0.010675 units=km normamps=419.0
new line.52873612 phases=3 bus1=80436275001990.1.2.3 bus2=80436265001990.1.2.3 r1=0.195 x1=0.4 length=0.030279 units=km normamps=419.0
new line.52873613 phases=3 bus1=80436285001990.1.2.3 bus2=80436275001990.1.2.3 r1=0.195 x1=0.4 length=0.036709 units=km normamps=419.0
new line.52873614 phases=3 bus1=80436295001990.1.2.3 bus2=80436285001990.1.2.3 r1=0.195 x1=0.4 length=0.033289 units=km normamps=419.0
new line.52873615 phases=3 bus1=80436135001990.1.2.3 bus2=80436295001990.1.2.3 r1=0.195 x1=0.4 length=0.035961 units=km normamps=419.0
new line.52873616 phases=3 bus1=80436315001990.1.2.3 bus2=80436135001990.1.2.3 r1=0.195 x1=0.4 length=0.023555 units=km normamps=419.0
new line.52873617 phases=3 bus1=80439175001990.1.2.3 bus2=80439165001990.1.2.3 r1=0.195 x1=0.4 length=0.025067 units=km normamps=419.0
new line.52873618 phases=3 bus1=80439185001990.1.2.3 bus2=80439175001990.1.2.3 r1=0.195 x1=0.4 length=0.033804 units=km normamps=419.0
new line.52873619 phases=3 bus1=80439195001990.1.2.3 bus2=80439185001990.1.2.3 r1=0.195 x1=0.4 length=0.041613 units=km normamps=419.0
new line.52873620 phases=3 bus1=80439205001990.1.2.3 bus2=80439195001990.1.2.3 r1=0.195 x1=0.4 length=0.033211 units=km normamps=419.0
new line.52873621 phases=3 bus1=80439245001990.1.2.3 bus2=80439205001990.1.2.3 r1=0.195 x1=0.4 length=0.040541 units=km normamps=419.0
new line.52873622 phases=3 bus1=80439255001990.1.2.3 bus2=80439245001990.1.2.3 r1=0.195 x1=0.4 length=0.035119 units=km normamps=419.0
new line.52873623 phases=3 bus1=80436335001990.1.2.3 bus2=80436285001990.1.2.3 r1=1.551 x1=0.49 length=0.023457 units=km normamps=114.0
new line.52873624 phases=3 bus1=80436395001990.1.2.3 bus2=80436215001990.1.2.3 r1=0.195 x1=0.4 length=0.040925 units=km normamps=419.0
new line.52873625 phases=3 bus1=80436395001990.1.2.3 bus2=80436385001990.1.2.3 r1=1.551 x1=0.49 length=0.022187 units=km normamps=114.0
new line.52873626 phases=3 bus1=80436545001990.1.2.3 bus2=80436535001990.1.2.3 r1=1.551 x1=0.49 length=0.035438 units=km normamps=114.0
new line.52873627 phases=3 bus1=80436555001990.1.2.3 bus2=80436545001990.1.2.3 r1=1.551 x1=0.49 length=0.034817 units=km normamps=114.0
new line.52873628 phases=3 bus1=80436565001990B.1.2.3 bus2=80436555001990.1.2.3 r1=1.551 x1=0.49 length=0.026163 units=km normamps=114.0
new line.52873629 phases=3 bus1=80436615001990B.1.2.3 bus2=80436155001990.1.2.3 r1=0.195 x1=0.4 length=0.032722 units=km normamps=419.0
new line.52873630 phases=3 bus1=80436625001990.1.2.3 bus2=80436615001990.1.2.3 r1=0.195 x1=0.4 length=0.025584 units=km normamps=419.0
new line.52873631 phases=3 bus1=80436635001990.1.2.3 bus2=80436625001990.1.2.3 r1=0.195 x1=0.4 length=0.026248 units=km normamps=419.0
new line.52873632 phases=3 bus1=80436655001990.1.2.3 bus2=80436635001990.1.2.3 r1=0.195 x1=0.4 length=0.028289 units=km normamps=419.0
new line.52873633 phases=3 bus1=80436585001990.1.2.3 bus2=80436655001990.1.2.3 r1=1.551 x1=0.49 length=0.03667 units=km normamps=114.0
new line.52873634 phases=3 bus1=80436665001990.1.2.3 bus2=80436655001990.1.2.3 r1=0.195 x1=0.4 length=0.023718 units=km normamps=419.0
new line.52873635 phases=3 bus1=80436675001990.1.2.3 bus2=80436665001990.1.2.3 r1=0.195 x1=0.4 length=0.024626 units=km normamps=419.0
new line.52873636 phases=3 bus1=80436685001990.1.2.3 bus2=80436675001990.1.2.3 r1=0.195 x1=0.4 length=0.021837 units=km normamps=419.0
new line.52873637 phases=3 bus1=80436685001990.1.2.3 bus2=80436565001990.1.2.3 r1=1.551 x1=0.49 length=0.035657 units=km normamps=114.0
new line.52873638 phases=3 bus1=80435905001990.1.2.3 bus2=80436685001990.1.2.3 r1=0.195 x1=0.4 length=0.027508 units=km normamps=419.0
new line.52873639 phases=3 bus1=80436725001990.1.2.3 bus2=80436715001990.1.2.3 r1=0.975 x1=0.47 length=0.025066 units=km normamps=152.0
new line.52873640 phases=3 bus1=80436745001990.1.2.3 bus2=80436725001990.1.2.3 r1=0.975 x1=0.47 length=0.024306 units=km normamps=152.0
new line.52873641 phases=3 bus1=80439265001990.1.2.3 bus2=80439255001990.1.2.3 r1=0.195 x1=0.4 length=0.037256 units=km normamps=419.0
new line.52873642 phases=3 bus1=80439275001990.1.2.3 bus2=80439265001990.1.2.3 r1=0.195 x1=0.4 length=0.03324 units=km normamps=419.0
new line.52873643 phases=3 bus1=80438795001990.1.2.3 bus2=80439275001990.1.2.3 r1=0.195 x1=0.4 length=0.032876 units=km normamps=419.0
new line.52873644 phases=3 bus1=80439345001990.1.2.3 bus2=80439335001990.1.2.3 r1=1.551 x1=0.49 length=0.032384 units=km normamps=114.0
new line.52873645 phases=3 bus1=80439345001990.1.2.3 bus2=80439165001990.1.2.3 r1=0.195 x1=0.4 length=0.037702 units=km normamps=419.0
new line.52873646 phases=3 bus1=80435985001990.1.2.3 bus2=80439345001990.1.2.3 r1=0.195 x1=0.4 length=0.027749 units=km normamps=419.0
new line.52873647 phases=3 bus1=80436755001990.1.2.3 bus2=80436745001990.1.2.3 r1=0.975 x1=0.47 length=0.036239 units=km normamps=152.0
new line.52873648 phases=3 bus1=80436765001990.1.2.3 bus2=80436755001990.1.2.3 r1=0.975 x1=0.47 length=0.007608 units=km normamps=152.0
new line.52873649 phases=3 bus1=80434005001990.1.2.3 bus2=80436755001990.1.2.3 r1=0.975 x1=0.47 length=0.023308 units=km normamps=152.0
new line.52873650 phases=3 bus1=80436825001990.1.2.3 bus2=80436815001990.1.2.3 r1=0.975 x1=0.47 length=0.023166 units=km normamps=152.0
new line.52873651 phases=3 bus1=80436975001990.1.2.3 bus2=80436815001990.1.2.3 r1=0.975 x1=0.47 length=0.032357 units=km normamps=152.0
new line.52873652 phases=3 bus1=80436985001990.1.2.3 bus2=80436975001990.1.2.3 r1=0.975 x1=0.47 length=0.024589 units=km normamps=152.0
new line.52873653 phases=3 bus1=80436995001990.1.2.3 bus2=80436985001990.1.2.3 r1=0.975 x1=0.47 length=0.031174 units=km normamps=152.0
new line.52873654 phases=3 bus1=80437785001990.1.2.3 bus2=80436995001990.1.2.3 r1=0.975 x1=0.47 length=0.010265 units=km normamps=152.0
new line.52873655 phases=3 bus1=80437795001990.1.2.3 bus2=80436995001990.1.2.3 r1=0.975 x1=0.47 length=0.029812 units=km normamps=152.0
new line.52873656 phases=3 bus1=80436745001990.1.2.3 bus2=80437795001990.1.2.3 r1=0.975 x1=0.47 length=0.008244 units=km normamps=152.0
new line.52873657 phases=3 bus1=80437805001990.1.2.3 bus2=80436635001990.1.2.3 r1=1.551 x1=0.49 length=0.039069 units=km normamps=114.0
new line.52873658 phases=3 bus1=80437815001990.1.2.3 bus2=80437805001990B.1.2.3 r1=1.551 x1=0.49 length=0.024804 units=km normamps=114.0
new line.52873659 phases=3 bus1=80437825001990.1.2.3 bus2=80437815001990.1.2.3 r1=1.551 x1=0.49 length=0.034593 units=km normamps=114.0
new line.52873660 phases=3 bus1=80436395001990.1.2.3 bus2=80437885001990.1.2.3 r1=0.195 x1=0.4 length=0.017141 units=km normamps=419.0
new line.52873661 phases=3 bus1=80437885001990.1.2.3 bus2=80437895001990.1.2.3 r1=0.195 x1=0.4 length=0.024306 units=km normamps=419.0
new line.52873662 phases=3 bus1=80437895001990.1.2.3 bus2=80437135001990.1.2.3 r1=0.195 x1=0.4 length=0.036476 units=km normamps=419.0
new line.52873663 phases=3 bus1=80437135001990.1.2.3 bus2=80437145001990.1.2.3 r1=0.195 x1=0.4 length=0.0401 units=km normamps=419.0
new line.52873665 phases=3 bus1=80437145001990.1.2.3 bus2=80437175001990.1.2.3 r1=0.195 x1=0.4 length=0.029336 units=km normamps=419.0
new line.52873666 phases=3 bus1=80437175001990.1.2.3 bus2=80437185001990.1.2.3 r1=0.195 x1=0.4 length=0.039942 units=km normamps=419.0
new line.52873667 phases=3 bus1=80437215001990.1.2.3 bus2=80437235001990.1.2.3 r1=0.975 x1=0.47 length=0.017023 units=km normamps=152.0
new line.52873668 phases=3 bus1=80437295001990.1.2.3 bus2=80437215001990.1.2.3 r1=0.975 x1=0.47 length=0.039932 units=km normamps=152.0
new line.52873669 phases=3 bus1=80437305001990.1.2.3 bus2=80437295001990.1.2.3 r1=0.975 x1=0.47 length=0.0377 units=km normamps=152.0
new line.52873670 phases=3 bus1=80437315001990.1.2.3 bus2=80437305001990.1.2.3 r1=0.975 x1=0.47 length=0.028282 units=km normamps=152.0
new line.52873671 phases=3 bus1=80437315001990.1.2.3 bus2=80437325001990.1.2.3 r1=0.975 x1=0.47 length=0.033292 units=km normamps=152.0
new line.52873672 phases=3 bus1=80437505001990.1.2.3 bus2=80437495001990.1.2.3 r1=0.975 x1=0.47 length=0.031796 units=km normamps=152.0
new line.52873673 phases=3 bus1=80437505001990.1.2.3 bus2=80437515001990.1.2.3 r1=0.975 x1=0.47 length=0.037945 units=km normamps=152.0
new line.52873674 phases=3 bus1=80437515001990.1.2.3 bus2=80437525001990.1.2.3 r1=0.975 x1=0.47 length=0.024068 units=km normamps=152.0
new line.52873675 phases=3 bus1=80437525001990.1.2.3 bus2=80437325001990.1.2.3 r1=0.975 x1=0.47 length=0.038928 units=km normamps=152.0
new line.52873676 phases=3 bus1=80437185001990.1.2.3 bus2=80437575001990.1.2.3 r1=0.195 x1=0.4 length=0.027289 units=km normamps=419.0
new line.52873677 phases=3 bus1=80437575001990B.1.2.3 bus2=80437585001990.1.2.3 r1=0.195 x1=0.4 length=0.031712 units=km normamps=419.0
new line.52873678 phases=3 bus1=80437585001990.1.2.3 bus2=80437595001990.1.2.3 r1=0.195 x1=0.4 length=0.02851 units=km normamps=419.0
new line.52873679 phases=3 bus1=80437595001990.1.2.3 bus2=80437615001990.1.2.3 r1=0.195 x1=0.4 length=0.031669 units=km normamps=419.0
new line.52873680 phases=3 bus1=80437625001990.1.2.3 bus2=80437615001990.1.2.3 r1=0.195 x1=0.4 length=0.020309 units=km normamps=419.0
new line.52873681 phases=3 bus1=80437615001990.1.2.3 bus2=80437635001990.1.2.3 r1=0.195 x1=0.4 length=0.034597 units=km normamps=419.0
new line.52873682 phases=3 bus1=80437635001990B.1.2.3 bus2=80437495001990.1.2.3 r1=0.975 x1=0.47 length=0.013648 units=km normamps=152.0
new line.52873683 phases=3 bus1=80437635001990.1.2.3 bus2=80437645001990.1.2.3 r1=0.195 x1=0.4 length=0.064368 units=km normamps=419.0
new line.52873684 phases=3 bus1=80437645001990.1.2.3 bus2=80437655001990.1.2.3 r1=0.195 x1=0.4 length=0.031573 units=km normamps=419.0
new line.52873685 phases=3 bus1=80437655001990.1.2.3 bus2=80437665001990.1.2.3 r1=0.195 x1=0.4 length=0.028738 units=km normamps=419.0
new line.52873686 phases=3 bus1=80437665001990.1.2.3 bus2=80437675001990.1.2.3 r1=0.195 x1=0.4 length=0.027292 units=km normamps=419.0
new line.52873687 phases=3 bus1=80437675001990.1.2.3 bus2=80437685001990.1.2.3 r1=0.195 x1=0.4 length=0.040019 units=km normamps=419.0
new line.52873688 phases=3 bus1=80437685001990.1.2.3 bus2=80437695001990.1.2.3 r1=0.195 x1=0.4 length=0.048754 units=km normamps=419.0
new line.52873689 phases=3 bus1=80439485001990.1.2.3 bus2=80439495001990.1.2.3 r1=1.551 x1=0.49 length=0.010262 units=km normamps=114.0
new line.52873690 phases=3 bus1=80439505001990.1.2.3 bus2=80439495001990.1.2.3 r1=1.551 x1=0.49 length=0.019903 units=km normamps=114.0
new line.52873691 phases=3 bus1=80439495001990.1.2.3 bus2=80439515001990.1.2.3 r1=1.551 x1=0.49 length=0.023335 units=km normamps=114.0
new line.52873692 phases=3 bus1=80439495001990.1.2.3 bus2=80439525001990.1.2.3 r1=1.551 x1=0.49 length=0.010491 units=km normamps=114.0
new line.52873693 phases=3 bus1=80439525001990.1.2.3 bus2=80439535001990.1.2.3 r1=1.551 x1=0.49 length=0.026381 units=km normamps=114.0
new line.52873694 phases=3 bus1=80439545001990.1.2.3 bus2=80439485001990.1.2.3 r1=1.551 x1=0.49 length=0.031805 units=km normamps=114.0
new line.52873695 phases=3 bus1=80437915001990.1.2.3 bus2=80439545001990.1.2.3 r1=1.551 x1=0.49 length=0.043391 units=km normamps=114.0
new line.52873696 phases=3 bus1=80437925001990.1.2.3 bus2=80437915001990.1.2.3 r1=1.551 x1=0.49 length=0.022978 units=km normamps=114.0
new line.52873697 phases=3 bus1=80437935001990.1.2.3 bus2=80437925001990.1.2.3 r1=1.551 x1=0.49 length=0.02791 units=km normamps=114.0
new line.52873698 phases=3 bus1=80437945001990.1.2.3 bus2=80437935001990.1.2.3 r1=1.551 x1=0.49 length=0.008244 units=km normamps=114.0
new line.52873699 phases=3 bus1=80439415001990.1.2.3 bus2=80437945001990.1.2.3 r1=1.551 x1=0.49 length=0.023316 units=km normamps=114.0
new line.52873700 phases=3 bus1=80437945001990.1.2.3 bus2=80437955001990.1.2.3 r1=1.551 x1=0.49 length=0.008857 units=km normamps=114.0
new line.52873701 phases=3 bus1=80437965001990.1.2.3 bus2=80437945001990.1.2.3 r1=1.551 x1=0.49 length=0.029486 units=km normamps=114.0
new line.52873702 phases=3 bus1=80437975001990.1.2.3 bus2=80437965001990.1.2.3 r1=1.551 x1=0.49 length=0.033176 units=km normamps=114.0
new line.52873703 phases=3 bus1=80437985001990.1.2.3 bus2=80437975001990.1.2.3 r1=1.551 x1=0.49 length=0.038288 units=km normamps=114.0
new line.52873704 phases=3 bus1=80438465001990.1.2.3 bus2=80438455001990.1.2.3 r1=1.551 x1=0.49 length=0.024918 units=km normamps=114.0
new line.52873705 phases=3 bus1=80438475001990.1.2.3 bus2=80438465001990.1.2.3 r1=1.551 x1=0.49 length=0.008574 units=km normamps=114.0
new line.52873706 phases=3 bus1=80438505001990.1.2.3 bus2=80438465001990.1.2.3 r1=1.551 x1=0.49 length=0.032914 units=km normamps=114.0
new line.52873707 phases=3 bus1=80438455001990.1.2.3 bus2=80438515001990.1.2.3 r1=1.551 x1=0.49 length=0.023517 units=km normamps=114.0
new line.52873708 phases=3 bus1=80438515001990.1.2.3 bus2=80438525001990.1.2.3 r1=1.551 x1=0.49 length=0.018626 units=km normamps=114.0
new line.52873709 phases=3 bus1=80438525001990.1.2.3 bus2=80438545001990.1.2.3 r1=1.551 x1=0.49 length=0.022855 units=km normamps=114.0
new line.52873710 phases=3 bus1=80438545001990.1.2.3 bus2=80437185001990B.1.2.3 r1=1.551 x1=0.49 length=0.042008 units=km normamps=114.0
...
